/*--------------------------------*- C++ -*----------------------------------*\
| =========                 |                                                 |
| \\      /  F ield         | OpenFOAM: The Open Source CFD Toolbox           |
|  \\    /   O peration     | Version:  v2006                                 |
|   \\  /    A nd           | Website:  www.openfoam.com                      |
|    \\/     M anipulation  |                                                 |
\*---------------------------------------------------------------------------*/
FoamFile
{
    version     2.0;
    format      ascii;
    class       dictionary;
    location    "constant";
    object      thermophysicalProperties.air;
}
// * * * * * * * * * * * * * * * * * * * * * * * * * * * * * * * * * * * * * //

phaseState      gaseous;  // or: gaseous, solid

thermoType
{
    type            heRhoThermo;
    mixture         pureMixture;
    transport       const;
    thermo          eConst;
    equationOfState perfectFluid;
    specie          specie;
    energy          sensibleInternalEnergy;
}

// Air (diatomic vapour (): R = 287 J/kg/K, Cv = 718 J/kg/K
TSolidus	5.0;
TLiquidus	10.0;
LatentHeat	1.0;

elec_conductivity	1.0;
magnetic_permeability	1.256e-6;

mixture
{
    specie
    {
        molWeight   28.96;
    }
    equationOfState
    {
        rho0         0.0;        // ideal gas: rho = p/(R T)
        R	287.0;
    }
    thermodynamics
    {
        Cv          718;
        Hf          0;
    }
    transport
    {
        mu          1.0e-5;
        Pr          1.0;
    }
}


// ************************************************************************* //
